REMARK  Name = ligand.pdb
REMARK                            x       y       z     vdW  Elec       q    Type
REMARK                         _______ _______ _______ _____ _____    ______ ____
ROOT
ATOM      1  C   LIG    1       14.203  24.064   5.078  0.00  0.00    +0.168 C 
ATOM      2  O   LIG    1       15.242  24.884   4.634  0.00  0.00    -0.222 OA
ENDROOT
BRANCH   1   3
ATOM      3  C   LIG    1       13.083  24.963   4.552  0.00  0.00    +0.106 C 
BRANCH   3   7
ATOM      4  N   LIG    1        9.280  23.763   3.004  0.00  0.00    -0.266 NA
ATOM      5  C   LIG    1        9.498  23.983   4.459  0.00  0.00    +0.098 C 
ATOM      6  C   LIG    1       10.591  24.905   4.962  0.00  0.00    +0.153 C 
ATOM      7  N   LIG    1       11.819  24.282   4.355  0.00  0.00    -0.262 NA
ATOM      8  C   LIG    1       11.753  23.776   2.961  0.00  0.00    +0.090 C 
ATOM      9  C   LIG    1       10.440  23.182   2.493  0.00  0.00    +0.090 C 
BRANCH   6  10
ATOM     10  C   LIG    1       10.591  24.864   6.466  0.00  0.00    +0.257 C 
ATOM     11  N   LIG    1       10.193  25.953   7.094  0.00  0.00    -0.208 NA
ATOM     12  O   LIG    1       10.937  23.849   7.057  0.00  0.00    -0.272 OA
BRANCH  11  13
ATOM     13  C   LIG    1       10.145  26.250   8.490  0.00  0.00    +0.079 C 
ATOM     14  C   LIG    1        9.364  25.283   9.268  0.00  0.00    +0.022 C 
ATOM     15  C   LIG    1       11.398  26.347   9.074  0.00  0.00    +0.022 C 
ATOM     16  C   LIG    1        9.379  27.577   8.641  0.00  0.00    +0.022 C 
ENDBRANCH  11  13
ENDBRANCH   6  10
BRANCH   4  17
ATOM     17  C   LIG    1        8.033  23.100   2.604  0.00  0.00    +0.101 C 
BRANCH  17  18
ATOM     18  C   LIG    1        6.666  23.739   2.876  0.00  0.00    +0.013 A 
ATOM     19  C   LIG    1        5.905  23.211   3.897  0.00  0.00    +0.000 A 
ATOM     20  C   LIG    1        4.654  23.774   4.136  0.00  0.00    +0.020 A 
ATOM     21  C   LIG    1        4.207  24.839   3.348  0.00  0.00    +0.099 A 
ATOM     22  N   LIG    1        4.911  25.430   2.300  0.00  0.00    -0.243 NA
ATOM     23  C   LIG    1        6.158  24.808   2.124  0.00  0.00    +0.096 A 
ENDBRANCH  17  18
ENDBRANCH   4  17
ENDBRANCH   3   7
ENDBRANCH   1   3
BRANCH   1  24
ATOM     24  C   LIG    1       14.440  23.761   6.569  0.00  0.00    +0.044 C 
BRANCH  24  25
ATOM     25  C   LIG    1       15.573  22.821   7.005  0.00  0.00    +0.085 C 
BRANCH  25  26
ATOM     26  C   LIG    1       15.447  21.440   6.373  0.00  0.00    +0.242 C 
ATOM     27  O   LIG    1       14.367  20.831   6.397  0.00  0.00    -0.273 OA
ATOM     28  N   LIG    1       16.583  20.913   5.924  0.00  0.00    -0.200 NA
BRANCH  28  29
ATOM     29  C   LIG    1       16.692  19.500   5.604  0.00  0.00    +0.148 C 
ATOM     30  C   LIG    1       18.067  18.945   5.936  0.00  0.00    +0.180 C 
ATOM     31  O   LIG    1       19.061  19.938   5.729  0.00  0.00    -0.221 OA
ATOM     32  C   LIG    1       18.226  17.726   5.057  0.00  0.00    +0.061 C 
ATOM     33  C   LIG    1       17.476  17.904   3.760  0.00  0.00    -0.022 A 
ATOM     34  C   LIG    1       17.500  17.363   2.496  0.00  0.00    -0.004 A 
ATOM     35  C   LIG    1       16.613  17.872   1.541  0.00  0.00    -0.000 A 
ATOM     36  C   LIG    1       15.722  18.906   1.865  0.00  0.00    -0.000 A 
ATOM     37  C   LIG    1       15.683  19.479   3.129  0.00  0.00    -0.003 A 
ATOM     38  C   LIG    1       16.504  19.061   4.128  0.00  0.00    -0.004 A 
ENDBRANCH  28  29
ENDBRANCH  25  26
BRANCH  25  39
ATOM     39  C   LIG    1       15.644  22.664   8.534  0.00  0.00    +0.036 C 
BRANCH  39  40
ATOM     40  C   LIG    1       16.733  21.750   8.961  0.00  0.00    -0.022 A 
ATOM     41  C   LIG    1       16.374  20.687   9.772  0.00  0.00    -0.004 A 
ATOM     42  C   LIG    1       17.347  19.773  10.176  0.00  0.00    -0.000 A 
ATOM     43  C   LIG    1       18.673  19.939   9.758  0.00  0.00    -0.000 A 
ATOM     44  C   LIG    1       19.037  21.016   8.947  0.00  0.00    -0.000 A 
ATOM     45  C   LIG    1       18.058  21.916   8.553  0.00  0.00    -0.004 A 
ENDBRANCH  39  40
ENDBRANCH  25  39
ENDBRANCH  24  25
ENDBRANCH   1  24
TORSDOF 12
