MODEL 1
REMARK VINA RESULT:     -10.3      0.000      0.000
REMARK  Name = ligand.pdb
REMARK                            x       y       z     vdW  Elec       q    Type
REMARK                         _______ _______ _______ _____ _____    ______ ____
ROOT
ATOM      1  C   LIG    1       12.572  22.772   4.100  0.00  0.00    +0.168 C 
ATOM      2  O   LIG    1       12.353  21.938   5.198  0.00  0.00    -0.222 OA
ENDROOT
BRANCH   1   3
ATOM      3  C   LIG    1       14.080  22.902   4.324  0.00  0.00    +0.106 C 
BRANCH   3   7
ATOM      4  N   LIG    1       16.233  22.328   7.975  0.00  0.00    -0.266 NA
ATOM      5  C   LIG    1       15.938  21.197   7.056  0.00  0.00    +0.098 C 
ATOM      6  C   LIG    1       15.702  21.425   5.576  0.00  0.00    +0.153 C 
ATOM      7  N   LIG    1       14.538  22.378   5.595  0.00  0.00    -0.262 NA
ATOM      8  C   LIG    1       14.519  23.467   6.603  0.00  0.00    +0.090 C 
ATOM      9  C   LIG    1       15.126  23.176   7.961  0.00  0.00    +0.090 C 
BRANCH   6  10
ATOM     10  C   LIG    1       15.371  20.102   4.939  0.00  0.00    +0.257 C 
ATOM     11  N   LIG    1       16.092  19.744   3.894  0.00  0.00    -0.208 NA
ATOM     12  O   LIG    1       14.477  19.403   5.397  0.00  0.00    -0.272 OA
BRANCH  11  13
ATOM     13  C   LIG    1       15.982  18.603   3.043  0.00  0.00    +0.079 C 
ATOM     14  C   LIG    1       17.173  18.369   2.221  0.00  0.00    +0.022 C 
ATOM     15  C   LIG    1       15.706  17.431   3.728  0.00  0.00    +0.022 C 
ATOM     16  C   LIG    1       14.865  18.906   2.027  0.00  0.00    +0.022 C 
ENDBRANCH  11  13
ENDBRANCH   6  10
BRANCH   4  17
ATOM     17  C   LIG    1       16.733  21.993   9.314  0.00  0.00    +0.101 C 
BRANCH  17  18
ATOM     18  C   LIG    1       17.206  20.576   9.658  0.00  0.00    +0.013 A 
ATOM     19  C   LIG    1       16.298  19.724  10.250  0.00  0.00    +0.000 A 
ATOM     20  C   LIG    1       16.728  18.442  10.583  0.00  0.00    +0.020 A 
ATOM     21  C   LIG    1       18.046  18.058  10.317  0.00  0.00    +0.099 A 
ATOM     22  N   LIG    1       19.024  18.854   9.723  0.00  0.00    -0.243 NA
ATOM     23  C   LIG    1       18.513  20.126   9.418  0.00  0.00    +0.096 A 
ENDBRANCH  17  18
ENDBRANCH   4  17
ENDBRANCH   3   7
ENDBRANCH   1   3
BRANCH   1  24
ATOM     24  C   LIG    1       11.581  23.947   4.190  0.00  0.00    +0.044 C 
BRANCH  24  25
ATOM     25  C   LIG    1       10.256  23.795   4.951  0.00  0.00    +0.085 C 
BRANCH  25  26
ATOM     26  C   LIG    1        9.148  23.237   4.066  0.00  0.00    +0.242 C 
ATOM     27  O   LIG    1        9.267  22.125   3.531  0.00  0.00    -0.273 OA
ATOM     28  N   LIG    1        8.137  24.069   3.826  0.00  0.00    -0.200 NA
BRANCH  28  29
ATOM     29  C   LIG    1        7.185  23.820   2.757  0.00  0.00    +0.148 C 
ATOM     30  C   LIG    1        6.991  25.039   1.871  0.00  0.00    +0.180 C 
ATOM     31  O   LIG    1        7.109  26.228   2.639  0.00  0.00    -0.221 OA
ATOM     32  C   LIG    1        5.634  24.853   1.233  0.00  0.00    +0.061 C 
ATOM     33  C   LIG    1        4.711  24.097   2.155  0.00  0.00    -0.022 A 
ATOM     34  C   LIG    1        3.355  23.921   2.308  0.00  0.00    -0.004 A 
ATOM     35  C   LIG    1        2.906  23.129   3.371  0.00  0.00    -0.000 A 
ATOM     36  C   LIG    1        3.814  22.530   4.256  0.00  0.00    -0.000 A 
ATOM     37  C   LIG    1        5.187  22.699   4.134  0.00  0.00    -0.003 A 
ATOM     38  C   LIG    1        5.727  23.451   3.139  0.00  0.00    -0.004 A 
ENDBRANCH  28  29
ENDBRANCH  25  26
BRANCH  25  39
ATOM     39  C   LIG    1        9.781  25.124   5.565  0.00  0.00    +0.036 C 
BRANCH  39  40
ATOM     40  C   LIG    1       10.277  25.318   6.951  0.00  0.00    -0.022 A 
ATOM     41  C   LIG    1       11.624  25.603   7.098  0.00  0.00    -0.004 A 
ATOM     42  C   LIG    1       12.141  25.832   8.373  0.00  0.00    -0.000 A 
ATOM     43  C   LIG    1       11.296  25.773   9.487  0.00  0.00    -0.000 A 
ATOM     44  C   LIG    1        9.939  25.477   9.340  0.00  0.00    -0.000 A 
ATOM     45  C   LIG    1        9.439  25.252   8.066  0.00  0.00    -0.004 A 
ENDBRANCH  39  40
ENDBRANCH  25  39
ENDBRANCH  24  25
ENDBRANCH   1  24
TORSDOF 12
ENDMDL
MODEL 2
REMARK VINA RESULT:     -10.2      1.973     10.299
REMARK  Name = ligand.pdb
REMARK                            x       y       z     vdW  Elec       q    Type
REMARK                         _______ _______ _______ _____ _____    ______ ____
ROOT
ATOM      1  C   LIG    1       12.146  22.388   6.863  0.00  0.00    +0.168 C 
ATOM      2  O   LIG    1       11.652  21.082   6.847  0.00  0.00    -0.222 OA
ENDROOT
BRANCH   1   3
ATOM      3  C   LIG    1       11.939  22.632   5.367  0.00  0.00    +0.106 C 
BRANCH   3   7
ATOM      4  N   LIG    1        8.615  24.247   3.212  0.00  0.00    -0.266 NA
ATOM      5  C   LIG    1        9.129  24.888   4.453  0.00  0.00    +0.098 C 
ATOM      6  C   LIG    1       10.565  24.699   4.901  0.00  0.00    +0.153 C 
ATOM      7  N   LIG    1       10.650  23.203   5.032  0.00  0.00    -0.262 NA
ATOM      8  C   LIG    1        9.996  22.354   4.005  0.00  0.00    +0.090 C 
ATOM      9  C   LIG    1        8.711  22.867   3.387  0.00  0.00    +0.090 C 
BRANCH   6  10
ATOM     10  C   LIG    1       10.751  25.418   6.210  0.00  0.00    +0.257 C 
ATOM     11  N   LIG    1        9.689  25.538   6.982  0.00  0.00    -0.208 NA
ATOM     12  O   LIG    1       11.852  25.850   6.527  0.00  0.00    -0.272 OA
BRANCH  11  13
ATOM     13  C   LIG    1        9.525  26.213   8.230  0.00  0.00    +0.079 C 
ATOM     14  C   LIG    1        8.165  26.122   8.771  0.00  0.00    +0.022 C 
ATOM     15  C   LIG    1       10.400  25.774   9.211  0.00  0.00    +0.022 C 
ATOM     16  C   LIG    1        9.733  27.715   7.959  0.00  0.00    +0.022 C 
ENDBRANCH  11  13
ENDBRANCH   6  10
BRANCH   4  17
ATOM     17  C   LIG    1        7.321  24.713   2.702  0.00  0.00    +0.101 C 
BRANCH  17  18
ATOM     18  C   LIG    1        6.061  24.686   3.575  0.00  0.00    +0.013 A 
ATOM     19  C   LIG    1        5.334  23.515   3.613  0.00  0.00    +0.000 A 
ATOM     20  C   LIG    1        4.178  23.489   4.388  0.00  0.00    +0.020 A 
ATOM     21  C   LIG    1        3.787  24.631   5.094  0.00  0.00    +0.099 A 
ATOM     22  N   LIG    1        4.462  25.851   5.110  0.00  0.00    -0.243 NA
ATOM     23  C   LIG    1        5.613  25.794   4.307  0.00  0.00    +0.096 A 
ENDBRANCH  17  18
ENDBRANCH   4  17
ENDBRANCH   3   7
ENDBRANCH   1   3
BRANCH   1  24
ATOM     24  C   LIG    1       13.522  22.368   7.553  0.00  0.00    +0.044 C 
BRANCH  24  25
ATOM     25  C   LIG    1       14.610  23.376   7.157  0.00  0.00    +0.085 C 
BRANCH  25  26
ATOM     26  C   LIG    1       15.356  22.950   5.898  0.00  0.00    +0.242 C 
ATOM     27  O   LIG    1       15.569  23.762   4.985  0.00  0.00    -0.273 OA
ATOM     28  N   LIG    1       15.634  21.651   5.812  0.00  0.00    -0.200 NA
BRANCH  28  29
ATOM     29  C   LIG    1       16.034  21.040   4.557  0.00  0.00    +0.148 C 
ATOM     30  C   LIG    1       14.839  20.544   3.759  0.00  0.00    +0.180 C 
ATOM     31  O   LIG    1       13.819  20.087   4.634  0.00  0.00    -0.221 OA
ATOM     32  C   LIG    1       15.389  19.472   2.846  0.00  0.00    +0.061 C 
ATOM     33  C   LIG    1       16.555  18.768   3.495  0.00  0.00    -0.022 A 
ATOM     34  C   LIG    1       17.218  17.571   3.356  0.00  0.00    -0.004 A 
ATOM     35  C   LIG    1       18.271  17.291   4.234  0.00  0.00    -0.000 A 
ATOM     36  C   LIG    1       18.642  18.208   5.229  0.00  0.00    -0.000 A 
ATOM     37  C   LIG    1       17.984  19.419   5.400  0.00  0.00    -0.003 A 
ATOM     38  C   LIG    1       16.946  19.786   4.604  0.00  0.00    -0.004 A 
ENDBRANCH  28  29
ENDBRANCH  25  26
BRANCH  25  39
ATOM     39  C   LIG    1       15.630  23.606   8.285  0.00  0.00    +0.036 C 
BRANCH  39  40
ATOM     40  C   LIG    1       16.163  22.335   8.837  0.00  0.00    -0.022 A 
ATOM     41  C   LIG    1       17.479  22.027   8.536  0.00  0.00    -0.004 A 
ATOM     42  C   LIG    1       18.048  20.865   9.056  0.00  0.00    -0.000 A 
ATOM     43  C   LIG    1       17.284  20.023   9.874  0.00  0.00    -0.000 A 
ATOM     44  C   LIG    1       15.954  20.329  10.170  0.00  0.00    -0.000 A 
ATOM     45  C   LIG    1       15.403  21.489   9.647  0.00  0.00    -0.004 A 
ENDBRANCH  39  40
ENDBRANCH  25  39
ENDBRANCH  24  25
ENDBRANCH   1  24
TORSDOF 12
ENDMDL
MODEL 3
REMARK VINA RESULT:      -9.8      2.292      4.224
REMARK  Name = ligand.pdb
REMARK                            x       y       z     vdW  Elec       q    Type
REMARK                         _______ _______ _______ _____ _____    ______ ____
ROOT
ATOM      1  C   LIG    1       14.247  22.602   5.103  0.00  0.00    +0.168 C 
ATOM      2  O   LIG    1       15.465  22.758   4.440  0.00  0.00    -0.222 OA
ENDROOT
BRANCH   1   3
ATOM      3  C   LIG    1       14.232  21.075   5.007  0.00  0.00    +0.106 C 
BRANCH   3   7
ATOM      4  N   LIG    1       17.411  18.290   4.350  0.00  0.00    -0.266 NA
ATOM      5  C   LIG    1       17.403  19.205   5.522  0.00  0.00    +0.098 C 
ATOM      6  C   LIG    1       16.108  19.765   6.077  0.00  0.00    +0.153 C 
ATOM      7  N   LIG    1       15.545  20.477   4.876  0.00  0.00    -0.262 NA
ATOM      8  C   LIG    1       15.653  19.832   3.543  0.00  0.00    +0.090 C 
ATOM      9  C   LIG    1       16.887  18.996   3.268  0.00  0.00    +0.090 C 
BRANCH   6  10
ATOM     10  C   LIG    1       16.441  20.696   7.211  0.00  0.00    +0.257 C 
ATOM     11  N   LIG    1       15.435  21.335   7.775  0.00  0.00    -0.208 NA
ATOM     12  O   LIG    1       17.600  20.827   7.584  0.00  0.00    -0.272 OA
BRANCH  11  13
ATOM     13  C   LIG    1       15.429  22.321   8.809  0.00  0.00    +0.079 C 
ATOM     14  C   LIG    1       15.264  21.758  10.153  0.00  0.00    +0.022 C 
ATOM     15  C   LIG    1       16.567  23.111   8.820  0.00  0.00    +0.022 C 
ATOM     16  C   LIG    1       14.175  23.188   8.595  0.00  0.00    +0.022 C 
ENDBRANCH  11  13
ENDBRANCH   6  10
BRANCH   4  17
ATOM     17  C   LIG    1       18.659  17.570   4.067  0.00  0.00    +0.101 C 
BRANCH  17  18
ATOM     18  C   LIG    1       19.101  16.374   4.918  0.00  0.00    +0.013 A 
ATOM     19  C   LIG    1       20.340  15.828   4.659  0.00  0.00    +0.000 A 
ATOM     20  C   LIG    1       20.739  14.728   5.414  0.00  0.00    +0.020 A 
ATOM     21  C   LIG    1       19.888  14.212   6.397  0.00  0.00    +0.099 A 
ATOM     22  N   LIG    1       18.624  14.703   6.721  0.00  0.00    -0.243 NA
ATOM     23  C   LIG    1       18.297  15.808   5.918  0.00  0.00    +0.096 A 
ENDBRANCH  17  18
ENDBRANCH   4  17
ENDBRANCH   3   7
ENDBRANCH   1   3
BRANCH   1  24
ATOM     24  C   LIG    1       13.214  23.521   4.424  0.00  0.00    +0.044 C 
BRANCH  24  25
ATOM     25  C   LIG    1       11.856  23.794   5.086  0.00  0.00    +0.085 C 
BRANCH  25  26
ATOM     26  C   LIG    1       10.690  23.424   4.177  0.00  0.00    +0.242 C 
ATOM     27  O   LIG    1       10.521  22.250   3.814  0.00  0.00    -0.273 OA
ATOM     28  N   LIG    1        9.974  24.449   3.723  0.00  0.00    -0.200 NA
BRANCH  28  29
ATOM     29  C   LIG    1        9.056  24.300   2.607  0.00  0.00    +0.148 C 
ATOM     30  C   LIG    1        8.890  25.595   1.830  0.00  0.00    +0.180 C 
ATOM     31  O   LIG    1        8.983  26.709   2.705  0.00  0.00    -0.221 OA
ATOM     32  C   LIG    1        7.554  25.472   1.134  0.00  0.00    +0.061 C 
ATOM     33  C   LIG    1        6.602  24.638   1.955  0.00  0.00    -0.022 A 
ATOM     34  C   LIG    1        5.242  24.453   2.048  0.00  0.00    -0.004 A 
ATOM     35  C   LIG    1        4.759  23.570   3.020  0.00  0.00    -0.000 A 
ATOM     36  C   LIG    1        5.639  22.890   3.876  0.00  0.00    -0.000 A 
ATOM     37  C   LIG    1        7.015  23.065   3.813  0.00  0.00    -0.003 A 
ATOM     38  C   LIG    1        7.587  23.902   2.908  0.00  0.00    -0.004 A 
ENDBRANCH  28  29
ENDBRANCH  25  26
BRANCH  25  39
ATOM     39  C   LIG    1       11.704  25.263   5.518  0.00  0.00    +0.036 C 
BRANCH  39  40
ATOM     40  C   LIG    1       11.288  25.398   6.936  0.00  0.00    -0.022 A 
ATOM     41  C   LIG    1       10.020  24.948   7.261  0.00  0.00    -0.004 A 
ATOM     42  C   LIG    1        9.586  25.014   8.585  0.00  0.00    -0.000 A 
ATOM     43  C   LIG    1       10.436  25.533   9.570  0.00  0.00    -0.000 A 
ATOM     44  C   LIG    1       11.712  25.995   9.241  0.00  0.00    -0.000 A 
ATOM     45  C   LIG    1       12.129  25.922   7.920  0.00  0.00    -0.004 A 
ENDBRANCH  39  40
ENDBRANCH  25  39
ENDBRANCH  24  25
ENDBRANCH   1  24
TORSDOF 12
ENDMDL
MODEL 4
REMARK VINA RESULT:      -9.3      2.743     11.275
REMARK  Name = ligand.pdb
REMARK                            x       y       z     vdW  Elec       q    Type
REMARK                         _______ _______ _______ _____ _____    ______ ____
ROOT
ATOM      1  C   LIG    1       15.155  22.182   6.859  0.00  0.00    +0.168 C 
ATOM      2  O   LIG    1       15.850  23.381   7.029  0.00  0.00    -0.222 OA
ENDROOT
BRANCH   1   3
ATOM      3  C   LIG    1       13.831  22.710   7.414  0.00  0.00    +0.106 C 
BRANCH   3   7
ATOM      4  N   LIG    1       12.112  24.011   3.720  0.00  0.00    -0.266 NA
ATOM      5  C   LIG    1       11.770  24.661   5.013  0.00  0.00    +0.098 C 
ATOM      6  C   LIG    1       12.722  24.622   6.192  0.00  0.00    +0.153 C 
ATOM      7  N   LIG    1       12.892  23.141   6.398  0.00  0.00    -0.262 NA
ATOM      8  C   LIG    1       13.024  22.261   5.210  0.00  0.00    +0.090 C 
ATOM      9  C   LIG    1       12.252  22.646   3.964  0.00  0.00    +0.090 C 
BRANCH   6  10
ATOM     10  C   LIG    1       12.064  25.309   7.357  0.00  0.00    +0.257 C 
ATOM     11  N   LIG    1       10.763  25.508   7.276  0.00  0.00    -0.208 NA
ATOM     12  O   LIG    1       12.725  25.646   8.331  0.00  0.00    -0.272 OA
BRANCH  11  13
ATOM     13  C   LIG    1        9.873  26.181   8.168  0.00  0.00    +0.079 C 
ATOM     14  C   LIG    1        9.429  25.349   9.290  0.00  0.00    +0.022 C 
ATOM     15  C   LIG    1       10.402  27.349   8.693  0.00  0.00    +0.022 C 
ATOM     16  C   LIG    1        8.587  26.483   7.377  0.00  0.00    +0.022 C 
ENDBRANCH  11  13
ENDBRANCH   6  10
BRANCH   4  17
ATOM     17  C   LIG    1       11.278  24.345   2.559  0.00  0.00    +0.101 C 
BRANCH  17  18
ATOM     18  C   LIG    1        9.769  24.574   2.699  0.00  0.00    +0.013 A 
ATOM     19  C   LIG    1        8.968  23.468   2.888  0.00  0.00    +0.000 A 
ATOM     20  C   LIG    1        7.594  23.668   2.996  0.00  0.00    +0.020 A 
ATOM     21  C   LIG    1        7.069  24.961   2.910  0.00  0.00    +0.099 A 
ATOM     22  N   LIG    1        7.806  26.130   2.721  0.00  0.00    -0.243 NA
ATOM     23  C   LIG    1        9.177  25.844   2.622  0.00  0.00    +0.096 A 
ENDBRANCH  17  18
ENDBRANCH   4  17
ENDBRANCH   3   7
ENDBRANCH   1   3
BRANCH   1  24
ATOM     24  C   LIG    1       15.980  21.057   7.511  0.00  0.00    +0.044 C 
BRANCH  24  25
ATOM     25  C   LIG    1       17.407  21.323   8.010  0.00  0.00    +0.085 C 
BRANCH  25  26
ATOM     26  C   LIG    1       18.403  20.306   7.466  0.00  0.00    +0.242 C 
ATOM     27  O   LIG    1       19.615  20.565   7.432  0.00  0.00    -0.273 OA
ATOM     28  N   LIG    1       17.866  19.210   6.935  0.00  0.00    -0.200 NA
BRANCH  28  29
ATOM     29  C   LIG    1       18.640  18.316   6.092  0.00  0.00    +0.148 C 
ATOM     30  C   LIG    1       17.944  18.032   4.772  0.00  0.00    +0.180 C 
ATOM     31  O   LIG    1       16.535  18.016   4.952  0.00  0.00    -0.221 OA
ATOM     32  C   LIG    1       18.516  16.717   4.295  0.00  0.00    +0.061 C 
ATOM     33  C   LIG    1       18.889  15.844   5.468  0.00  0.00    -0.022 A 
ATOM     34  C   LIG    1       19.113  14.507   5.702  0.00  0.00    -0.004 A 
ATOM     35  C   LIG    1       19.412  14.105   7.008  0.00  0.00    -0.000 A 
ATOM     36  C   LIG    1       19.482  15.041   8.051  0.00  0.00    -0.000 A 
ATOM     37  C   LIG    1       19.250  16.394   7.847  0.00  0.00    -0.003 A 
ATOM     38  C   LIG    1       18.949  16.889   6.618  0.00  0.00    -0.004 A 
ENDBRANCH  28  29
ENDBRANCH  25  26
BRANCH  25  39
ATOM     39  C   LIG    1       17.495  21.333   9.546  0.00  0.00    +0.036 C 
BRANCH  39  40
ATOM     40  C   LIG    1       17.639  19.969  10.116  0.00  0.00    -0.022 A 
ATOM     41  C   LIG    1       18.897  19.612  10.570  0.00  0.00    -0.004 A 
ATOM     42  C   LIG    1       19.086  18.357  11.148  0.00  0.00    -0.000 A 
ATOM     43  C   LIG    1       18.006  17.475  11.265  0.00  0.00    -0.000 A 
ATOM     44  C   LIG    1       16.738  17.832  10.799  0.00  0.00    -0.000 A 
ATOM     45  C   LIG    1       16.565  19.083  10.227  0.00  0.00    -0.004 A 
ENDBRANCH  39  40
ENDBRANCH  25  39
ENDBRANCH  24  25
ENDBRANCH   1  24
TORSDOF 12
ENDMDL
MODEL 5
REMARK VINA RESULT:      -9.1      2.779      5.947
REMARK  Name = ligand.pdb
REMARK                            x       y       z     vdW  Elec       q    Type
REMARK                         _______ _______ _______ _____ _____    ______ ____
ROOT
ATOM      1  C   LIG    1       14.343  21.941   4.139  0.00  0.00    +0.168 C 
ATOM      2  O   LIG    1       13.814  21.982   2.848  0.00  0.00    -0.222 OA
ENDROOT
BRANCH   1   3
ATOM      3  C   LIG    1       14.402  20.415   4.217  0.00  0.00    +0.106 C 
BRANCH   3   7
ATOM      4  N   LIG    1       17.719  17.748   4.646  0.00  0.00    -0.266 NA
ATOM      5  C   LIG    1       17.530  18.913   5.552  0.00  0.00    +0.098 C 
ATOM      6  C   LIG    1       16.157  19.510   5.792  0.00  0.00    +0.153 C 
ATOM      7  N   LIG    1       15.738  19.882   4.395  0.00  0.00    -0.262 NA
ATOM      8  C   LIG    1       16.039  18.947   3.282  0.00  0.00    +0.090 C 
ATOM      9  C   LIG    1       17.322  18.145   3.369  0.00  0.00    +0.090 C 
BRANCH   6  10
ATOM     10  C   LIG    1       16.311  20.701   6.698  0.00  0.00    +0.257 C 
ATOM     11  N   LIG    1       15.799  20.601   7.909  0.00  0.00    -0.208 NA
ATOM     12  O   LIG    1       16.900  21.702   6.310  0.00  0.00    -0.272 OA
BRANCH  11  13
ATOM     13  C   LIG    1       15.720  21.562   8.962  0.00  0.00    +0.079 C 
ATOM     14  C   LIG    1       14.774  22.650   8.692  0.00  0.00    +0.022 C 
ATOM     15  C   LIG    1       15.386  21.008  10.188  0.00  0.00    +0.022 C 
ATOM     16  C   LIG    1       17.093  22.254   9.043  0.00  0.00    +0.022 C 
ENDBRANCH  11  13
ENDBRANCH   6  10
BRANCH   4  17
ATOM     17  C   LIG    1       19.013  17.058   4.700  0.00  0.00    +0.101 C 
BRANCH  17  18
ATOM     18  C   LIG    1       19.173  15.715   5.424  0.00  0.00    +0.013 A 
ATOM     19  C   LIG    1       19.932  14.743   4.808  0.00  0.00    +0.000 A 
ATOM     20  C   LIG    1       20.064  13.515   5.451  0.00  0.00    +0.020 A 
ATOM     21  C   LIG    1       19.434  13.300   6.680  0.00  0.00    +0.099 A 
ATOM     22  N   LIG    1       18.651  14.226   7.368  0.00  0.00    -0.243 NA
ATOM     23  C   LIG    1       18.568  15.435   6.657  0.00  0.00    +0.096 A 
ENDBRANCH  17  18
ENDBRANCH   4  17
ENDBRANCH   3   7
ENDBRANCH   1   3
BRANCH   1  24
ATOM     24  C   LIG    1       13.458  22.819   5.043  0.00  0.00    +0.044 C 
BRANCH  24  25
ATOM     25  C   LIG    1       12.326  23.666   4.444  0.00  0.00    +0.085 C 
BRANCH  25  26
ATOM     26  C   LIG    1       12.115  24.966   5.210  0.00  0.00    +0.242 C 
ATOM     27  O   LIG    1       13.043  25.779   5.340  0.00  0.00    -0.273 OA
ATOM     28  N   LIG    1       10.935  25.089   5.811  0.00  0.00    -0.200 NA
BRANCH  28  29
ATOM     29  C   LIG    1       10.703  26.095   6.834  0.00  0.00    +0.148 C 
ATOM     30  C   LIG    1       10.763  25.507   8.234  0.00  0.00    +0.180 C 
ATOM     31  O   LIG    1       10.270  24.175   8.230  0.00  0.00    -0.221 OA
ATOM     32  C   LIG    1        9.962  26.455   9.097  0.00  0.00    +0.061 C 
ATOM     33  C   LIG    1        8.853  27.094   8.298  0.00  0.00    -0.022 A 
ATOM     34  C   LIG    1        7.658  27.724   8.552  0.00  0.00    -0.004 A 
ATOM     35  C   LIG    1        6.888  28.147   7.463  0.00  0.00    -0.000 A 
ATOM     36  C   LIG    1        7.324  27.934   6.147  0.00  0.00    -0.000 A 
ATOM     37  C   LIG    1        8.520  27.290   5.860  0.00  0.00    -0.003 A 
ATOM     38  C   LIG    1        9.341  26.837   6.844  0.00  0.00    -0.004 A 
ENDBRANCH  28  29
ENDBRANCH  25  26
BRANCH  25  39
ATOM     39  C   LIG    1       10.992  22.900   4.388  0.00  0.00    +0.036 C 
BRANCH  39  40
ATOM     40  C   LIG    1        9.970  23.599   3.570  0.00  0.00    -0.022 A 
ATOM     41  C   LIG    1        8.645  23.389   3.913  0.00  0.00    -0.004 A 
ATOM     42  C   LIG    1        7.640  24.047   3.204  0.00  0.00    -0.000 A 
ATOM     43  C   LIG    1        7.980  24.911   2.156  0.00  0.00    -0.000 A 
ATOM     44  C   LIG    1        9.316  25.116   1.804  0.00  0.00    -0.000 A 
ATOM     45  C   LIG    1       10.304  24.455   2.519  0.00  0.00    -0.004 A 
ENDBRANCH  39  40
ENDBRANCH  25  39
ENDBRANCH  24  25
ENDBRANCH   1  24
TORSDOF 12
ENDMDL
MODEL 6
REMARK VINA RESULT:      -8.9      3.272      7.775
REMARK  Name = ligand.pdb
REMARK                            x       y       z     vdW  Elec       q    Type
REMARK                         _______ _______ _______ _____ _____    ______ ____
ROOT
ATOM      1  C   LIG    1        7.405  24.112   2.726  0.00  0.00    +0.168 C 
ATOM      2  O   LIG    1        7.195  23.188   3.751  0.00  0.00    -0.222 OA
ENDROOT
BRANCH   1   3
ATOM      3  C   LIG    1        7.975  25.201   3.636  0.00  0.00    +0.106 C 
BRANCH   3   7
ATOM      4  N   LIG    1       11.958  23.702   4.075  0.00  0.00    -0.266 NA
ATOM      5  C   LIG    1       11.383  24.687   5.031  0.00  0.00    +0.098 C 
ATOM      6  C   LIG    1        9.886  24.802   5.240  0.00  0.00    +0.153 C 
ATOM      7  N   LIG    1        9.406  25.109   3.847  0.00  0.00    -0.262 NA
ATOM      8  C   LIG    1       10.019  24.390   2.701  0.00  0.00    +0.090 C 
ATOM      9  C   LIG    1       11.488  24.033   2.805  0.00  0.00    +0.090 C 
BRANCH   6  10
ATOM     10  C   LIG    1        9.627  25.920   6.212  0.00  0.00    +0.257 C 
ATOM     11  N   LIG    1        9.674  25.619   7.495  0.00  0.00    -0.208 NA
ATOM     12  O   LIG    1        9.399  27.052   5.806  0.00  0.00    -0.272 OA
BRANCH  11  13
ATOM     13  C   LIG    1        9.411  26.426   8.644  0.00  0.00    +0.079 C 
ATOM     14  C   LIG    1       10.274  27.607   8.740  0.00  0.00    +0.022 C 
ATOM     15  C   LIG    1        8.096  26.857   8.723  0.00  0.00    +0.022 C 
ATOM     16  C   LIG    1        9.772  25.580   9.879  0.00  0.00    +0.022 C 
ENDBRANCH  11  13
ENDBRANCH   6  10
BRANCH   4  17
ATOM     17  C   LIG    1       13.403  23.456   4.152  0.00  0.00    +0.101 C 
BRANCH  17  18
ATOM     18  C   LIG    1       13.969  22.032   4.192  0.00  0.00    +0.013 A 
ATOM     19  C   LIG    1       14.346  21.460   2.996  0.00  0.00    +0.000 A 
ATOM     20  C   LIG    1       14.843  20.159   3.023  0.00  0.00    +0.020 A 
ATOM     21  C   LIG    1       14.943  19.477   4.240  0.00  0.00    +0.099 A 
ATOM     22  N   LIG    1       14.585  19.980   5.489  0.00  0.00    -0.243 NA
ATOM     23  C   LIG    1       14.096  21.292   5.377  0.00  0.00    +0.096 A 
ENDBRANCH  17  18
ENDBRANCH   4  17
ENDBRANCH   3   7
ENDBRANCH   1   3
BRANCH   1  24
ATOM     24  C   LIG    1        6.092  24.248   1.933  0.00  0.00    +0.044 C 
BRANCH  24  25
ATOM     25  C   LIG    1        4.739  24.261   2.657  0.00  0.00    +0.085 C 
BRANCH  25  26
ATOM     26  C   LIG    1        4.317  25.670   3.058  0.00  0.00    +0.242 C 
ATOM     27  O   LIG    1        4.160  26.550   2.198  0.00  0.00    -0.273 OA
ATOM     28  N   LIG    1        4.259  25.897   4.367  0.00  0.00    -0.200 NA
BRANCH  28  29
ATOM     29  C   LIG    1        4.200  27.246   4.904  0.00  0.00    +0.148 C 
ATOM     30  C   LIG    1        5.518  27.668   5.532  0.00  0.00    +0.180 C 
ATOM     31  O   LIG    1        6.160  26.549   6.126  0.00  0.00    -0.221 OA
ATOM     32  C   LIG    1        5.160  28.760   6.512  0.00  0.00    +0.061 C 
ATOM     33  C   LIG    1        3.778  28.536   7.076  0.00  0.00    -0.022 A 
ATOM     34  C   LIG    1        3.060  28.935   8.179  0.00  0.00    -0.004 A 
ATOM     35  C   LIG    1        1.763  28.436   8.340  0.00  0.00    -0.000 A 
ATOM     36  C   LIG    1        1.209  27.553   7.400  0.00  0.00    -0.000 A 
ATOM     37  C   LIG    1        1.914  27.125   6.283  0.00  0.00    -0.003 A 
ATOM     38  C   LIG    1        3.182  27.546   6.035  0.00  0.00    -0.004 A 
ENDBRANCH  28  29
ENDBRANCH  25  26
BRANCH  25  39
ATOM     39  C   LIG    1        4.739  23.367   3.910  0.00  0.00    +0.036 C 
BRANCH  39  40
ATOM     40  C   LIG    1        3.859  22.181   3.761  0.00  0.00    -0.022 A 
ATOM     41  C   LIG    1        4.164  21.076   4.537  0.00  0.00    -0.004 A 
ATOM     42  C   LIG    1        3.352  19.944   4.468  0.00  0.00    -0.000 A 
ATOM     43  C   LIG    1        2.239  19.938   3.618  0.00  0.00    -0.000 A 
ATOM     44  C   LIG    1        1.936  21.050   2.829  0.00  0.00    -0.000 A 
ATOM     45  C   LIG    1        2.753  22.168   2.909  0.00  0.00    -0.004 A 
ENDBRANCH  39  40
ENDBRANCH  25  39
ENDBRANCH  24  25
ENDBRANCH   1  24
TORSDOF 12
ENDMDL
MODEL 7
REMARK VINA RESULT:      -8.2      6.064     12.640
REMARK  Name = ligand.pdb
REMARK                            x       y       z     vdW  Elec       q    Type
REMARK                         _______ _______ _______ _____ _____    ______ ____
ROOT
ATOM      1  C   LIG    1        4.654  27.149   7.080  0.00  0.00    +0.168 C 
ATOM      2  O   LIG    1        4.232  25.950   6.503  0.00  0.00    -0.222 OA
ENDROOT
BRANCH   1   3
ATOM      3  C   LIG    1        4.053  28.043   5.994  0.00  0.00    +0.106 C 
BRANCH   3   7
ATOM      4  N   LIG    1        0.838  29.659   8.307  0.00  0.00    -0.266 NA
ATOM      5  C   LIG    1        0.594  28.907   7.047  0.00  0.00    +0.098 C 
ATOM      6  C   LIG    1        1.590  27.887   6.532  0.00  0.00    +0.153 C 
ATOM      7  N   LIG    1        2.835  28.720   6.391  0.00  0.00    -0.262 NA
ATOM      8  C   LIG    1        3.155  29.717   7.443  0.00  0.00    +0.090 C 
ATOM      9  C   LIG    1        1.994  30.416   8.122  0.00  0.00    +0.090 C 
BRANCH   6  10
ATOM     10  C   LIG    1        1.086  27.352   5.219  0.00  0.00    +0.257 C 
ATOM     11  N   LIG    1        1.369  26.096   4.937  0.00  0.00    -0.208 NA
ATOM     12  O   LIG    1        0.433  28.068   4.470  0.00  0.00    -0.272 OA
BRANCH  11  13
ATOM     13  C   LIG    1        1.098  25.329   3.763  0.00  0.00    +0.079 C 
ATOM     14  C   LIG    1        1.744  24.012   3.762  0.00  0.00    +0.022 C 
ATOM     15  C   LIG    1       -0.254  25.135   3.534  0.00  0.00    +0.022 C 
ATOM     16  C   LIG    1        1.741  26.076   2.580  0.00  0.00    +0.022 C 
ENDBRANCH  11  13
ENDBRANCH   6  10
BRANCH   4  17
ATOM     17  C   LIG    1       -0.295  30.398   8.879  0.00  0.00    +0.101 C 
BRANCH  17  18
ATOM     18  C   LIG    1       -0.922  29.987  10.216  0.00  0.00    +0.013 A 
ATOM     19  C   LIG    1       -1.490  30.978  10.988  0.00  0.00    +0.000 A 
ATOM     20  C   LIG    1       -2.044  30.614  12.212  0.00  0.00    +0.020 A 
ATOM     21  C   LIG    1       -2.009  29.278  12.623  0.00  0.00    +0.099 A 
ATOM     22  N   LIG    1       -1.457  28.218  11.906  0.00  0.00    -0.243 NA
ATOM     23  C   LIG    1       -0.922  28.666  10.687  0.00  0.00    +0.096 A 
ENDBRANCH  17  18
ENDBRANCH   4  17
ENDBRANCH   3   7
ENDBRANCH   1   3
BRANCH   1  24
ATOM     24  C   LIG    1        6.162  27.034   7.368  0.00  0.00    +0.044 C 
BRANCH  24  25
ATOM     25  C   LIG    1        7.155  28.024   6.742  0.00  0.00    +0.085 C 
BRANCH  25  26
ATOM     26  C   LIG    1        7.944  27.399   5.598  0.00  0.00    +0.242 C 
ATOM     27  O   LIG    1        8.947  27.966   5.139  0.00  0.00    -0.273 OA
ATOM     28  N   LIG    1        7.411  26.299   5.073  0.00  0.00    -0.200 NA
BRANCH  28  29
ATOM     29  C   LIG    1        7.850  25.780   3.789  0.00  0.00    +0.148 C 
ATOM     30  C   LIG    1        6.680  25.387   2.903  0.00  0.00    +0.180 C 
ATOM     31  O   LIG    1        5.609  24.892   3.694  0.00  0.00    -0.221 OA
ATOM     32  C   LIG    1        7.240  24.376   1.929  0.00  0.00    +0.061 C 
ATOM     33  C   LIG    1        8.357  23.586   2.566  0.00  0.00    -0.022 A 
ATOM     34  C   LIG    1        8.993  22.385   2.357  0.00  0.00    -0.004 A 
ATOM     35  C   LIG    1        9.998  22.003   3.252  0.00  0.00    -0.000 A 
ATOM     36  C   LIG    1       10.348  22.824   4.334  0.00  0.00    -0.000 A 
ATOM     37  C   LIG    1        9.716  24.036   4.577  0.00  0.00    -0.003 A 
ATOM     38  C   LIG    1        8.725  24.499   3.771  0.00  0.00    -0.004 A 
ENDBRANCH  28  29
ENDBRANCH  25  26
BRANCH  25  39
ATOM     39  C   LIG    1        8.143  28.591   7.777  0.00  0.00    +0.036 C 
BRANCH  39  40
ATOM     40  C   LIG    1        9.002  27.539   8.377  0.00  0.00    -0.022 A 
ATOM     41  C   LIG    1        8.374  26.370   8.772  0.00  0.00    -0.004 A 
ATOM     42  C   LIG    1        9.134  25.331   9.309  0.00  0.00    -0.000 A 
ATOM     43  C   LIG    1       10.520  25.480   9.442  0.00  0.00    -0.000 A 
ATOM     44  C   LIG    1       11.152  26.662   9.052  0.00  0.00    -0.000 A 
ATOM     45  C   LIG    1       10.383  27.686   8.519  0.00  0.00    -0.004 A 
ENDBRANCH  39  40
ENDBRANCH  25  39
ENDBRANCH  24  25
ENDBRANCH   1  24
TORSDOF 12
ENDMDL
MODEL 8
REMARK VINA RESULT:      -8.2      4.120     11.856
REMARK  Name = ligand.pdb
REMARK                            x       y       z     vdW  Elec       q    Type
REMARK                         _______ _______ _______ _____ _____    ______ ____
ROOT
ATOM      1  C   LIG    1       16.960  20.076   6.019  0.00  0.00    +0.168 C 
ATOM      2  O   LIG    1       15.833  19.281   6.235  0.00  0.00    -0.222 OA
ENDROOT
BRANCH   1   3
ATOM      3  C   LIG    1       16.283  21.003   5.007  0.00  0.00    +0.106 C 
BRANCH   3   7
ATOM      4  N   LIG    1       12.821  23.491   5.360  0.00  0.00    -0.266 NA
ATOM      5  C   LIG    1       13.783  23.325   6.483  0.00  0.00    +0.098 C 
ATOM      6  C   LIG    1       15.229  22.944   6.233  0.00  0.00    +0.153 C 
ATOM      7  N   LIG    1       15.077  21.638   5.500  0.00  0.00    -0.262 NA
ATOM      8  C   LIG    1       14.009  21.509   4.477  0.00  0.00    +0.090 C 
ATOM      9  C   LIG    1       12.714  22.257   4.719  0.00  0.00    +0.090 C 
BRANCH   6  10
ATOM     10  C   LIG    1       15.917  22.797   7.563  0.00  0.00    +0.257 C 
ATOM     11  N   LIG    1       15.758  21.651   8.195  0.00  0.00    -0.208 NA
ATOM     12  O   LIG    1       16.599  23.710   8.010  0.00  0.00    -0.272 OA
BRANCH  11  13
ATOM     13  C   LIG    1       16.215  21.234   9.482  0.00  0.00    +0.079 C 
ATOM     14  C   LIG    1       16.138  19.784   9.690  0.00  0.00    +0.022 C 
ATOM     15  C   LIG    1       17.514  21.631   9.758  0.00  0.00    +0.022 C 
ATOM     16  C   LIG    1       15.242  21.826  10.518  0.00  0.00    +0.022 C 
ENDBRANCH  11  13
ENDBRANCH   6  10
BRANCH   4  17
ATOM     17  C   LIG    1       11.540  24.140   5.663  0.00  0.00    +0.101 C 
BRANCH  17  18
ATOM     18  C   LIG    1       11.266  24.763   7.036  0.00  0.00    +0.013 A 
ATOM     19  C   LIG    1       10.045  24.506   7.623  0.00  0.00    +0.000 A 
ATOM     20  C   LIG    1        9.782  25.086   8.862  0.00  0.00    +0.020 A 
ATOM     21  C   LIG    1       10.743  25.901   9.468  0.00  0.00    +0.099 A 
ATOM     22  N   LIG    1       11.997  26.211   8.944  0.00  0.00    -0.243 NA
ATOM     23  C   LIG    1       12.185  25.590   7.699  0.00  0.00    +0.096 A 
ENDBRANCH  17  18
ENDBRANCH   4  17
ENDBRANCH   3   7
ENDBRANCH   1   3
BRANCH   1  24
ATOM     24  C   LIG    1       18.141  19.147   5.684  0.00  0.00    +0.044 C 
BRANCH  24  25
ATOM     25  C   LIG    1       17.951  17.624   5.646  0.00  0.00    +0.085 C 
BRANCH  25  26
ATOM     26  C   LIG    1       18.999  16.895   6.479  0.00  0.00    +0.242 C 
ATOM     27  O   LIG    1       19.378  17.360   7.564  0.00  0.00    -0.273 OA
ATOM     28  N   LIG    1       19.540  15.825   5.903  0.00  0.00    -0.200 NA
BRANCH  28  29
ATOM     29  C   LIG    1       20.762  15.225   6.410  0.00  0.00    +0.148 C 
ATOM     30  C   LIG    1       21.563  14.547   5.311  0.00  0.00    +0.180 C 
ATOM     31  O   LIG    1       20.690  13.993   4.338  0.00  0.00    -0.221 OA
ATOM     32  C   LIG    1       22.421  13.523   6.019  0.00  0.00    +0.061 C 
ATOM     33  C   LIG    1       21.721  13.003   7.250  0.00  0.00    -0.022 A 
ATOM     34  C   LIG    1       21.799  11.899   8.067  0.00  0.00    -0.004 A 
ATOM     35  C   LIG    1       20.891  11.793   9.125  0.00  0.00    -0.000 A 
ATOM     36  C   LIG    1       19.926  12.787   9.348  0.00  0.00    -0.000 A 
ATOM     37  C   LIG    1       19.816  13.906   8.534  0.00  0.00    -0.003 A 
ATOM     38  C   LIG    1       20.647  14.104   7.477  0.00  0.00    -0.004 A 
ENDBRANCH  28  29
ENDBRANCH  25  26
BRANCH  25  39
ATOM     39  C   LIG    1       17.982  17.069   4.211  0.00  0.00    +0.036 C 
BRANCH  39  40
ATOM     40  C   LIG    1       16.927  17.661   3.351  0.00  0.00    -0.022 A 
ATOM     41  C   LIG    1       15.614  17.382   3.691  0.00  0.00    -0.004 A 
ATOM     42  C   LIG    1       14.578  17.940   2.943  0.00  0.00    -0.000 A 
ATOM     43  C   LIG    1       14.875  18.774   1.858  0.00  0.00    -0.000 A 
ATOM     44  C   LIG    1       16.199  19.048   1.509  0.00  0.00    -0.000 A 
ATOM     45  C   LIG    1       17.218  18.487   2.264  0.00  0.00    -0.004 A 
ENDBRANCH  39  40
ENDBRANCH  25  39
ENDBRANCH  24  25
ENDBRANCH   1  24
TORSDOF 12
ENDMDL
MODEL 9
REMARK VINA RESULT:      -8.1      4.968     12.115
REMARK  Name = ligand.pdb
REMARK                            x       y       z     vdW  Elec       q    Type
REMARK                         _______ _______ _______ _____ _____    ______ ____
ROOT
ATOM      1  C   LIG    1        5.000  26.269   5.338  0.00  0.00    +0.168 C 
ATOM      2  O   LIG    1        5.465  25.716   4.144  0.00  0.00    -0.222 OA
ENDROOT
BRANCH   1   3
ATOM      3  C   LIG    1        4.256  27.428   4.673  0.00  0.00    +0.106 C 
BRANCH   3   7
ATOM      4  N   LIG    1        0.554  27.623   6.806  0.00  0.00    -0.266 NA
ATOM      5  C   LIG    1        0.755  26.680   5.674  0.00  0.00    +0.098 C 
ATOM      6  C   LIG    1        2.139  26.196   5.288  0.00  0.00    +0.153 C 
ATOM      7  N   LIG    1        2.845  27.492   4.997  0.00  0.00    -0.262 NA
ATOM      8  C   LIG    1        2.605  28.656   5.887  0.00  0.00    +0.090 C 
ATOM      9  C   LIG    1        1.221  28.805   6.486  0.00  0.00    +0.090 C 
BRANCH   6  10
ATOM     10  C   LIG    1        2.011  25.310   4.078  0.00  0.00    +0.257 C 
ATOM     11  N   LIG    1        2.449  24.072   4.194  0.00  0.00    -0.208 NA
ATOM     12  O   LIG    1        1.507  25.739   3.048  0.00  0.00    -0.272 OA
BRANCH  11  13
ATOM     13  C   LIG    1        2.531  23.025   3.226  0.00  0.00    +0.079 C 
ATOM     14  C   LIG    1        3.234  21.833   3.711  0.00  0.00    +0.022 C 
ATOM     15  C   LIG    1        1.295  22.621   2.749  0.00  0.00    +0.022 C 
ATOM     16  C   LIG    1        3.406  23.548   2.072  0.00  0.00    +0.022 C 
ENDBRANCH  11  13
ENDBRANCH   6  10
BRANCH   4  17
ATOM     17  C   LIG    1       -0.819  27.805   7.293  0.00  0.00    +0.101 C 
BRANCH  17  18
ATOM     18  C   LIG    1       -1.130  27.890   8.792  0.00  0.00    +0.013 A 
ATOM     19  C   LIG    1       -0.706  29.012   9.471  0.00  0.00    +0.000 A 
ATOM     20  C   LIG    1       -0.968  29.086  10.837  0.00  0.00    +0.020 A 
ATOM     21  C   LIG    1       -1.639  28.039  11.475  0.00  0.00    +0.099 A 
ATOM     22  N   LIG    1       -2.100  26.873  10.865  0.00  0.00    -0.243 NA
ATOM     23  C   LIG    1       -1.799  26.876   9.493  0.00  0.00    +0.096 A 
ENDBRANCH  17  18
ENDBRANCH   4  17
ENDBRANCH   3   7
ENDBRANCH   1   3
BRANCH   1  24
ATOM     24  C   LIG    1        6.203  26.442   6.283  0.00  0.00    +0.044 C 
BRANCH  24  25
ATOM     25  C   LIG    1        7.156  27.635   6.125  0.00  0.00    +0.085 C 
BRANCH  25  26
ATOM     26  C   LIG    1        8.382  27.283   5.293  0.00  0.00    +0.242 C 
ATOM     27  O   LIG    1        9.069  28.174   4.772  0.00  0.00    -0.273 OA
ATOM     28  N   LIG    1        8.571  25.984   5.077  0.00  0.00    -0.200 NA
BRANCH  28  29
ATOM     29  C   LIG    1        9.481  25.507   4.050  0.00  0.00    +0.148 C 
ATOM     30  C   LIG    1        8.887  24.359   3.251  0.00  0.00    +0.180 C 
ATOM     31  O   LIG    1        8.056  23.561   4.080  0.00  0.00    -0.221 OA
ATOM     32  C   LIG    1       10.074  23.618   2.678  0.00  0.00    +0.061 C 
ATOM     33  C   LIG    1       11.261  23.720   3.604  0.00  0.00    -0.022 A 
ATOM     34  C   LIG    1       12.435  23.037   3.820  0.00  0.00    -0.004 A 
ATOM     35  C   LIG    1       13.270  23.468   4.857  0.00  0.00    -0.000 A 
ATOM     36  C   LIG    1       12.919  24.569   5.653  0.00  0.00    -0.000 A 
ATOM     37  C   LIG    1       11.736  25.270   5.465  0.00  0.00    -0.003 A 
ATOM     38  C   LIG    1       10.853  24.932   4.489  0.00  0.00    -0.004 A 
ENDBRANCH  28  29
ENDBRANCH  25  26
BRANCH  25  39
ATOM     39  C   LIG    1        7.619  28.195   7.482  0.00  0.00    +0.036 C 
BRANCH  39  40
ATOM     40  C   LIG    1        8.613  27.318   8.149  0.00  0.00    -0.022 A 
ATOM     41  C   LIG    1        9.907  27.799   8.243  0.00  0.00    -0.004 A 
ATOM     42  C   LIG    1       10.878  27.036   8.892  0.00  0.00    -0.000 A 
ATOM     43  C   LIG    1       10.534  25.794   9.439  0.00  0.00    -0.000 A 
ATOM     44  C   LIG    1        9.231  25.304   9.337  0.00  0.00    -0.000 A 
ATOM     45  C   LIG    1        8.276  26.075   8.689  0.00  0.00    -0.004 A 
ENDBRANCH  39  40
ENDBRANCH  25  39
ENDBRANCH  24  25
ENDBRANCH   1  24
TORSDOF 12
ENDMDL
