REMARK  Name = 
REMARK                            x       y       z     vdW  Elec       q    Type
REMARK                         _______ _______ _______ _____ _____    ______ ____
ROOT
ATOM      1  C   LIG    1        1.013  -0.465  -0.070  0.00  0.00    +0.066 A 
ATOM      2  C   LIG    1        0.262  -1.610  -0.111  0.00  0.00    +0.016 A 
ATOM      3  C   LIG    1       -1.087  -1.495   0.135  0.00  0.00    -0.002 A 
ATOM      4  C   LIG    1       -1.754  -0.314  -0.104  0.00  0.00    -0.012 A 
ATOM      5  C   LIG    1       -0.985   0.834  -0.221  0.00  0.00    -0.002 A 
ATOM      6  C   LIG    1        0.377   0.710  -0.440  0.00  0.00    +0.016 A 
ENDROOT
BRANCH   4   7
ATOM      7  C   LIG    1       -2.966  -0.074   0.973  0.00  0.00    +0.126 C 
ATOM      8  C   LIG    1       -3.769  -1.446   0.460  0.00  0.00    +0.017 C 
BRANCH   7   9
ATOM      9  C   LIG    1       -3.790   0.888  -0.059  0.00  0.00    +0.368 C 
ATOM     10  O   LIG    1       -4.171   2.096   0.469  0.00  0.00    -0.245 OA
ATOM     11  O   LIG    1       -3.916   0.491  -1.211  0.00  0.00    -0.245 OA
ENDBRANCH   7   9
ENDBRANCH   4   7
BRANCH   1  12
ATOM     12  N   LIG    1        2.406  -0.524   0.180  0.00  0.00    -0.233 NA
BRANCH  12  13
ATOM     13  C   LIG    1        3.230   0.509  -0.399  0.00  0.00    +0.134 C 
BRANCH  13  15
ATOM     14  C   LIG    1        5.258   1.197   0.551  0.00  0.00    -0.007 C 
ATOM     15  C   LIG    1        4.661   0.295  -0.041  0.00  0.00    -0.023 C 
ATOM     16  C   LIG    1        5.230  -1.092  -0.043  0.00  0.00    +0.028 C 
ENDBRANCH  13  15
ENDBRANCH  12  13
ENDBRANCH   1  12
TORSDOF 5
