MODEL 1
REMARK VINA RESULT:      -6.6      0.000      0.000
REMARK  Name = 
REMARK                            x       y       z     vdW  Elec       q    Type
REMARK                         _______ _______ _______ _____ _____    ______ ____
ROOT
ATOM      1  C   LIG    1       13.728  21.409   4.448  0.00  0.00    +0.066 A 
ATOM      2  C   LIG    1       14.438  20.660   5.349  0.00  0.00    +0.016 A 
ATOM      3  C   LIG    1       15.138  19.579   4.865  0.00  0.00    -0.002 A 
ATOM      4  C   LIG    1       15.571  19.540   3.558  0.00  0.00    -0.012 A 
ATOM      5  C   LIG    1       14.964  20.410   2.665  0.00  0.00    -0.002 A 
ATOM      6  C   LIG    1       14.237  21.480   3.160  0.00  0.00    +0.016 A 
ENDROOT
BRANCH   4   7
ATOM      7  C   LIG    1       15.554  18.014   2.960  0.00  0.00    +0.126 C 
ATOM      8  C   LIG    1       15.175  17.372   4.454  0.00  0.00    +0.017 C 
BRANCH   7   9
ATOM      9  C   LIG    1       17.159  17.825   3.199  0.00  0.00    +0.368 C 
ATOM     10  O   LIG    1       17.950  18.633   2.422  0.00  0.00    -0.245 OA
ATOM     11  O   LIG    1       17.503  17.060   4.092  0.00  0.00    -0.245 OA
ENDBRANCH   7   9
ENDBRANCH   4   7
BRANCH   1  12
ATOM     12  N   LIG    1       12.628  22.195   4.871  0.00  0.00    -0.233 NA
BRANCH  12  13
ATOM     13  C   LIG    1       12.400  23.443   4.184  0.00  0.00    +0.134 C 
BRANCH  13  15
ATOM     14  C   LIG    1       11.178  23.936   2.247  0.00  0.00    -0.007 C 
ATOM     15  C   LIG    1       11.179  23.354   3.334  0.00  0.00    -0.023 C 
ATOM     16  C   LIG    1       10.160  22.287   3.603  0.00  0.00    +0.028 C 
ENDBRANCH  13  15
ENDBRANCH  12  13
ENDBRANCH   1  12
TORSDOF 5
ENDMDL
MODEL 2
REMARK VINA RESULT:      -6.4      2.229      2.988
REMARK  Name = 
REMARK                            x       y       z     vdW  Elec       q    Type
REMARK                         _______ _______ _______ _____ _____    ______ ____
ROOT
ATOM      1  C   LIG    1       14.599  21.321   4.592  0.00  0.00    +0.066 A 
ATOM      2  C   LIG    1       15.747  20.838   5.163  0.00  0.00    +0.016 A 
ATOM      3  C   LIG    1       16.284  19.687   4.635  0.00  0.00    -0.002 A 
ATOM      4  C   LIG    1       16.054  19.332   3.324  0.00  0.00    -0.012 A 
ATOM      5  C   LIG    1       14.982  19.936   2.685  0.00  0.00    -0.002 A 
ATOM      6  C   LIG    1       14.428  21.079   3.238  0.00  0.00    +0.016 A 
ENDROOT
BRANCH   4   7
ATOM      7  C   LIG    1       15.976  17.705   3.142  0.00  0.00    +0.126 C 
ATOM      8  C   LIG    1       16.960  17.453   4.468  0.00  0.00    +0.017 C 
BRANCH   7   9
ATOM      9  C   LIG    1       17.238  17.688   2.104  0.00  0.00    +0.368 C 
ATOM     10  O   LIG    1       18.301  18.467   2.488  0.00  0.00    -0.245 OA
ATOM     11  O   LIG    1       17.160  16.932   1.143  0.00  0.00    -0.245 OA
ENDBRANCH   7   9
ENDBRANCH   4   7
BRANCH   1  12
ATOM     12  N   LIG    1       13.726  22.161   5.326  0.00  0.00    -0.233 NA
BRANCH  12  13
ATOM     13  C   LIG    1       13.385  21.756   6.668  0.00  0.00    +0.134 C 
BRANCH  13  15
ATOM     14  C   LIG    1       13.743  23.819   7.720  0.00  0.00    -0.007 C 
ATOM     15  C   LIG    1       14.068  22.631   7.665  0.00  0.00    -0.023 C 
ATOM     16  C   LIG    1       14.818  22.014   8.806  0.00  0.00    +0.028 C 
ENDBRANCH  13  15
ENDBRANCH  12  13
ENDBRANCH   1  12
TORSDOF 5
ENDMDL
MODEL 3
REMARK VINA RESULT:      -6.4      6.715      9.236
REMARK  Name = 
REMARK                            x       y       z     vdW  Elec       q    Type
REMARK                         _______ _______ _______ _____ _____    ______ ____
ROOT
ATOM      1  C   LIG    1       12.603  24.060   7.504  0.00  0.00    +0.066 A 
ATOM      2  C   LIG    1       11.368  24.187   6.924  0.00  0.00    +0.016 A 
ATOM      3  C   LIG    1       10.467  25.034   7.527  0.00  0.00    -0.002 A 
ATOM      4  C   LIG    1       10.893  26.089   8.303  0.00  0.00    -0.012 A 
ATOM      5  C   LIG    1       12.198  26.045   8.769  0.00  0.00    -0.002 A 
ATOM      6  C   LIG    1       13.093  25.169   8.175  0.00  0.00    +0.016 A 
ENDROOT
BRANCH   4   7
ATOM      7  C   LIG    1        9.862  26.385   9.542  0.00  0.00    +0.126 C 
ATOM      8  C   LIG    1        8.867  25.121   9.090  0.00  0.00    +0.017 C 
BRANCH   7   9
ATOM      9  C   LIG    1        9.009  27.470   8.669  0.00  0.00    +0.368 C 
ATOM     10  O   LIG    1        9.750  28.516   8.179  0.00  0.00    -0.245 OA
ATOM     11  O   LIG    1        7.829  27.215   8.461  0.00  0.00    -0.245 OA
ENDBRANCH   7   9
ENDBRANCH   4   7
BRANCH   1  12
ATOM     12  N   LIG    1       13.390  22.904   7.279  0.00  0.00    -0.233 NA
BRANCH  12  13
ATOM     13  C   LIG    1       14.802  23.095   7.054  0.00  0.00    +0.134 C 
BRANCH  13  15
ATOM     14  C   LIG    1       16.548  23.366   8.592  0.00  0.00    -0.007 C 
ATOM     15  C   LIG    1       15.582  22.679   8.254  0.00  0.00    -0.023 C 
ATOM     16  C   LIG    1       14.986  21.708   9.229  0.00  0.00    +0.028 C 
ENDBRANCH  13  15
ENDBRANCH  12  13
ENDBRANCH   1  12
TORSDOF 5
ENDMDL
MODEL 4
REMARK VINA RESULT:      -6.2      6.297      8.634
REMARK  Name = 
REMARK                            x       y       z     vdW  Elec       q    Type
REMARK                         _______ _______ _______ _____ _____    ______ ____
ROOT
ATOM      1  C   LIG    1       11.118  23.925   6.036  0.00  0.00    +0.066 A 
ATOM      2  C   LIG    1        9.939  24.618   5.951  0.00  0.00    +0.016 A 
ATOM      3  C   LIG    1        9.679  25.552   6.928  0.00  0.00    -0.002 A 
ATOM      4  C   LIG    1       10.703  26.163   7.617  0.00  0.00    -0.012 A 
ATOM      5  C   LIG    1       11.946  25.549   7.579  0.00  0.00    -0.002 A 
ATOM      6  C   LIG    1       12.190  24.589   6.610  0.00  0.00    +0.016 A 
ENDROOT
BRANCH   4   7
ATOM      7  C   LIG    1       10.282  26.488   9.167  0.00  0.00    +0.126 C 
ATOM      8  C   LIG    1        9.009  25.408   9.106  0.00  0.00    +0.017 C 
BRANCH   7   9
ATOM      9  C   LIG    1        9.337  27.745   8.723  0.00  0.00    +0.368 C 
ATOM     10  O   LIG    1        8.023  27.631   9.099  0.00  0.00    -0.245 OA
ATOM     11  O   LIG    1        9.892  28.695   8.183  0.00  0.00    -0.245 OA
ENDBRANCH   7   9
ENDBRANCH   4   7
BRANCH   1  12
ATOM     12  N   LIG    1       11.257  22.660   5.415  0.00  0.00    -0.233 NA
BRANCH  12  13
ATOM     13  C   LIG    1       11.925  22.616   4.137  0.00  0.00    +0.134 C 
BRANCH  13  15
ATOM     14  C   LIG    1        9.924  22.092   3.037  0.00  0.00    -0.007 C 
ATOM     15  C   LIG    1       10.943  22.787   3.029  0.00  0.00    -0.023 C 
ATOM     16  C   LIG    1       10.994  24.015   2.171  0.00  0.00    +0.028 C 
ENDBRANCH  13  15
ENDBRANCH  12  13
ENDBRANCH   1  12
TORSDOF 5
ENDMDL
MODEL 5
REMARK VINA RESULT:      -6.1      6.533      8.810
REMARK  Name = 
REMARK                            x       y       z     vdW  Elec       q    Type
REMARK                         _______ _______ _______ _____ _____    ______ ____
ROOT
ATOM      1  C   LIG    1       12.718  24.609   7.124  0.00  0.00    +0.066 A 
ATOM      2  C   LIG    1       11.550  25.028   6.543  0.00  0.00    +0.016 A 
ATOM      3  C   LIG    1       10.619  25.635   7.353  0.00  0.00    -0.002 A 
ATOM      4  C   LIG    1       10.998  26.283   8.508  0.00  0.00    -0.012 A 
ATOM      5  C   LIG    1       12.250  25.981   9.021  0.00  0.00    -0.002 A 
ATOM      6  C   LIG    1       13.172  25.344   8.208  0.00  0.00    +0.016 A 
ENDROOT
BRANCH   4   7
ATOM      7  C   LIG    1        9.860  26.148   9.680  0.00  0.00    +0.126 C 
ATOM      8  C   LIG    1        8.985  25.044   8.782  0.00  0.00    +0.017 C 
BRANCH   7   9
ATOM      9  C   LIG    1        9.007  27.414   9.099  0.00  0.00    +0.368 C 
ATOM     10  O   LIG    1        9.743  28.555   8.901  0.00  0.00    -0.245 OA
ATOM     11  O   LIG    1        7.832  27.212   8.817  0.00  0.00    -0.245 OA
ENDBRANCH   7   9
ENDBRANCH   4   7
BRANCH   1  12
ATOM     12  N   LIG    1       13.490  23.580   6.531  0.00  0.00    -0.233 NA
BRANCH  12  13
ATOM     13  C   LIG    1       13.908  23.765   5.163  0.00  0.00    +0.134 C 
BRANCH  13  15
ATOM     14  C   LIG    1       14.111  21.503   4.587  0.00  0.00    -0.007 C 
ATOM     15  C   LIG    1       13.548  22.573   4.343  0.00  0.00    -0.023 C 
ATOM     16  C   LIG    1       12.285  22.578   3.535  0.00  0.00    +0.028 C 
ENDBRANCH  13  15
ENDBRANCH  12  13
ENDBRANCH   1  12
TORSDOF 5
ENDMDL
MODEL 6
REMARK VINA RESULT:      -6.0      3.937      6.496
REMARK  Name = 
REMARK                            x       y       z     vdW  Elec       q    Type
REMARK                         _______ _______ _______ _____ _____    ______ ____
ROOT
ATOM      1  C   LIG    1       13.949  21.077   5.370  0.00  0.00    +0.066 A 
ATOM      2  C   LIG    1       13.936  21.882   4.261  0.00  0.00    +0.016 A 
ATOM      3  C   LIG    1       12.751  22.506   3.942  0.00  0.00    -0.002 A 
ATOM      4  C   LIG    1       11.809  22.778   4.909  0.00  0.00    -0.012 A 
ATOM      5  C   LIG    1       11.908  22.078   6.102  0.00  0.00    -0.002 A 
ATOM      6  C   LIG    1       13.094  21.428   6.403  0.00  0.00    +0.016 A 
ENDROOT
BRANCH   4   7
ATOM      7  C   LIG    1       10.285  22.672   4.317  0.00  0.00    +0.126 C 
ATOM      8  C   LIG    1       10.817  22.902   2.751  0.00  0.00    +0.017 C 
BRANCH   7   9
ATOM      9  C   LIG    1       10.009  24.267   4.540  0.00  0.00    +0.368 C 
ATOM     10  O   LIG    1       10.170  25.035   3.415  0.00  0.00    -0.245 OA
ATOM     11  O   LIG    1        9.609  24.614   5.644  0.00  0.00    -0.245 OA
ENDBRANCH   7   9
ENDBRANCH   4   7
BRANCH   1  12
ATOM     12  N   LIG    1       14.910  20.045   5.501  0.00  0.00    -0.233 NA
BRANCH  12  13
ATOM     13  C   LIG    1       15.696  19.716   4.337  0.00  0.00    +0.134 C 
BRANCH  13  15
ATOM     14  C   LIG    1       15.131  18.440   2.455  0.00  0.00    -0.007 C 
ATOM     15  C   LIG    1       15.173  18.481   3.687  0.00  0.00    -0.023 C 
ATOM     16  C   LIG    1       15.077  17.209   4.474  0.00  0.00    +0.028 C 
ENDBRANCH  13  15
ENDBRANCH  12  13
ENDBRANCH   1  12
TORSDOF 5
ENDMDL
MODEL 7
REMARK VINA RESULT:      -5.8      4.342      6.809
REMARK  Name = 
REMARK                            x       y       z     vdW  Elec       q    Type
REMARK                         _______ _______ _______ _____ _____    ______ ____
ROOT
ATOM      1  C   LIG    1       13.687  21.276   5.457  0.00  0.00    +0.066 A 
ATOM      2  C   LIG    1       12.898  21.553   6.542  0.00  0.00    +0.016 A 
ATOM      3  C   LIG    1       12.482  22.854   6.711  0.00  0.00    -0.002 A 
ATOM      4  C   LIG    1       12.372  23.709   5.638  0.00  0.00    -0.012 A 
ATOM      5  C   LIG    1       13.044  23.357   4.477  0.00  0.00    -0.002 A 
ATOM      6  C   LIG    1       13.484  22.053   4.326  0.00  0.00    +0.016 A 
ENDROOT
BRANCH   4   7
ATOM      7  C   LIG    1       12.735  25.253   6.054  0.00  0.00    +0.126 C 
ATOM      8  C   LIG    1       12.805  24.859   7.675  0.00  0.00    +0.017 C 
BRANCH   7   9
ATOM      9  C   LIG    1       11.159  25.675   6.145  0.00  0.00    +0.368 C 
ATOM     10  O   LIG    1       10.775  26.184   7.360  0.00  0.00    -0.245 OA
ATOM     11  O   LIG    1       10.497  25.583   5.118  0.00  0.00    -0.245 OA
ENDBRANCH   7   9
ENDBRANCH   4   7
BRANCH   1  12
ATOM     12  N   LIG    1       14.542  20.147   5.455  0.00  0.00    -0.233 NA
BRANCH  12  13
ATOM     13  C   LIG    1       15.381  19.950   4.298  0.00  0.00    +0.134 C 
BRANCH  13  15
ATOM     14  C   LIG    1       15.134  18.553   2.433  0.00  0.00    -0.007 C 
ATOM     15  C   LIG    1       15.090  18.633   3.663  0.00  0.00    -0.023 C 
ATOM     16  C   LIG    1       15.135  17.382   4.488  0.00  0.00    +0.028 C 
ENDBRANCH  13  15
ENDBRANCH  12  13
ENDBRANCH   1  12
TORSDOF 5
ENDMDL
MODEL 8
REMARK VINA RESULT:      -5.6      5.147      6.527
REMARK  Name = 
REMARK                            x       y       z     vdW  Elec       q    Type
REMARK                         _______ _______ _______ _____ _____    ______ ____
ROOT
ATOM      1  C   LIG    1       11.001  25.431   8.405  0.00  0.00    +0.066 A 
ATOM      2  C   LIG    1       12.318  25.774   8.561  0.00  0.00    +0.016 A 
ATOM      3  C   LIG    1       13.265  24.850   8.183  0.00  0.00    -0.002 A 
ATOM      4  C   LIG    1       12.986  23.899   7.226  0.00  0.00    -0.012 A 
ATOM      5  C   LIG    1       11.650  23.655   6.947  0.00  0.00    -0.002 A 
ATOM      6  C   LIG    1       10.700  24.576   7.356  0.00  0.00    +0.016 A 
ENDROOT
BRANCH   4   7
ATOM      7  C   LIG    1       13.767  22.490   7.527  0.00  0.00    +0.126 C 
ATOM      8  C   LIG    1       15.107  23.293   8.118  0.00  0.00    +0.017 C 
BRANCH   7   9
ATOM      9  C   LIG    1       14.379  22.421   6.014  0.00  0.00    +0.368 C 
ATOM     10  O   LIG    1       15.323  23.377   5.737  0.00  0.00    -0.245 OA
ATOM     11  O   LIG    1       14.012  21.491   5.306  0.00  0.00    -0.245 OA
ENDBRANCH   7   9
ENDBRANCH   4   7
BRANCH   1  12
ATOM     12  N   LIG    1        9.995  26.057   9.182  0.00  0.00    -0.233 NA
BRANCH  12  13
ATOM     13  C   LIG    1        9.676  27.430   8.874  0.00  0.00    +0.134 C 
BRANCH  13  15
ATOM     14  C   LIG    1        7.400  27.757   8.423  0.00  0.00    -0.007 C 
ATOM     15  C   LIG    1        8.509  27.498   7.949  0.00  0.00    -0.023 C 
ATOM     16  C   LIG    1        8.735  27.640   6.474  0.00  0.00    +0.028 C 
ENDBRANCH  13  15
ENDBRANCH  12  13
ENDBRANCH   1  12
TORSDOF 5
ENDMDL
MODEL 9
REMARK VINA RESULT:      -5.5      2.241      2.974
REMARK  Name = 
REMARK                            x       y       z     vdW  Elec       q    Type
REMARK                         _______ _______ _______ _____ _____    ______ ____
ROOT
ATOM      1  C   LIG    1       13.533  23.112   4.630  0.00  0.00    +0.066 A 
ATOM      2  C   LIG    1       14.695  23.184   5.351  0.00  0.00    +0.016 A 
ATOM      3  C   LIG    1       15.462  22.044   5.435  0.00  0.00    -0.002 A 
ATOM      4  C   LIG    1       15.404  21.076   4.457  0.00  0.00    -0.012 A 
ATOM      5  C   LIG    1       14.301  21.091   3.617  0.00  0.00    -0.002 A 
ATOM      6  C   LIG    1       13.517  22.231   3.559  0.00  0.00    +0.016 A 
ENDROOT
BRANCH   4   7
ATOM      7  C   LIG    1       15.619  19.574   5.079  0.00  0.00    +0.126 C 
ATOM      8  C   LIG    1       16.364  20.185   6.443  0.00  0.00    +0.017 C 
BRANCH   7   9
ATOM      9  C   LIG    1       17.040  19.376   4.297  0.00  0.00    +0.368 C 
ATOM     10  O   LIG    1       16.922  18.935   3.003  0.00  0.00    -0.245 OA
ATOM     11  O   LIG    1       18.056  19.712   4.893  0.00  0.00    -0.245 OA
ENDBRANCH   7   9
ENDBRANCH   4   7
BRANCH   1  12
ATOM     12  N   LIG    1       12.472  24.018   4.879  0.00  0.00    -0.233 NA
BRANCH  12  13
ATOM     13  C   LIG    1       12.786  25.228   5.600  0.00  0.00    +0.134 C 
BRANCH  13  15
ATOM     14  C   LIG    1       10.869  24.877   6.901  0.00  0.00    -0.007 C 
ATOM     15  C   LIG    1       12.037  25.275   6.888  0.00  0.00    -0.023 C 
ATOM     16  C   LIG    1       12.783  25.421   8.179  0.00  0.00    +0.028 C 
ENDBRANCH  13  15
ENDBRANCH  12  13
ENDBRANCH   1  12
TORSDOF 5
ENDMDL
