REMARK  Name = 
REMARK                            x       y       z     vdW  Elec       q    Type
REMARK                         _______ _______ _______ _____ _____    ______ ____
ROOT
ATOM      1  N   LIG    1        0.200  -0.189   0.531  0.00  0.00    -0.263 NA
ENDROOT
BRANCH   1   3
ATOM      2  C   LIG    1       -0.600  -2.029  -0.660  0.00  0.00    +0.030 C 
ATOM      3  C   LIG    1       -0.870  -0.375  -0.650  0.00  0.00    +0.162 C 
BRANCH   3   4
ATOM      4  C   LIG    1       -2.110  -0.490   0.425  0.00  0.00    +0.379 C 
ATOM      5  O   LIG    1       -3.035  -1.479   0.058  0.00  0.00    -0.244 OA
ATOM      6  O   LIG    1       -2.642   0.668   0.409  0.00  0.00    -0.244 OA
ENDBRANCH   3   4
ENDBRANCH   1   3
BRANCH   1   7
ATOM      7  C   LIG    1        1.376  -0.557  -0.203  0.00  0.00    +0.090 C 
BRANCH   7   8
ATOM      8  C   LIG    1        2.582  -0.828   0.650  0.00  0.00    +0.112 C 
ATOM      9 CL   LIG    1        3.768  -1.833  -0.236  0.00  0.00    -0.112 Cl
ENDBRANCH   7   8
ENDBRANCH   1   7
BRANCH   1  10
ATOM     10  C   LIG    1        0.127   1.189   0.899  0.00  0.00    +0.090 C 
BRANCH  10  11
ATOM     11  C   LIG    1        0.381   2.153  -0.218  0.00  0.00    +0.112 C 
ATOM     12 CL   LIG    1        0.823   3.771   0.405  0.00  0.00    -0.112 Cl
ENDBRANCH  10  11
ENDBRANCH   1  10
TORSDOF 6
