REMARK  Name = 
REMARK                            x       y       z     vdW  Elec       q    Type
REMARK                         _______ _______ _______ _____ _____    ______ ____
ROOT
ATOM      1  C   LIG    1       -3.312  -0.586  -0.358  0.00  0.00    -0.015 A 
ATOM      2  C   LIG    1       -2.556  -1.647   0.124  0.00  0.00    +0.036 A 
ATOM      3  C   LIG    1       -1.189  -1.683  -0.125  0.00  0.00    +0.172 A 
ATOM      4  C   LIG    1       -0.588  -0.563  -0.685  0.00  0.00    +0.173 A 
ATOM      5  C   LIG    1       -1.361   0.137  -1.604  0.00  0.00    +0.040 A 
ATOM      6  C   LIG    1       -2.736   0.126  -1.404  0.00  0.00    -0.001 A 
ENDROOT
BRANCH   3   7
ATOM      7  O   LIG    1       -0.406  -2.771   0.277  0.00  0.00    -0.468 OA
ATOM      8  C   LIG    1       -0.042  -3.672  -0.756  0.00  0.00    +0.253 C 
ENDBRANCH   3   7
BRANCH   1   9
ATOM      9  C   LIG    1       -4.591  -0.160   0.283  0.00  0.00    +0.052 C 
BRANCH   9  11
ATOM     10  C   LIG    1       -5.311   1.903  -0.736  0.00  0.00    -0.005 C 
ATOM     11  C   LIG    1       -4.665   1.338   0.289  0.00  0.00    -0.021 C 
ENDBRANCH   9  11
ENDBRANCH   1   9
BRANCH   4  12
ATOM     12  O   LIG    1        0.740  -0.302  -0.447  0.00  0.00    -0.463 OA
BRANCH  12  13
ATOM     13  C   LIG    1        1.254   0.001   0.845  0.00  0.00    +0.290 C 
BRANCH  13  14
ATOM     14  C   LIG    1        2.746  -0.066   0.796  0.00  0.00    +0.270 C 
ATOM     15  N   LIG    1        3.403   1.029   0.173  0.00  0.00    -0.277 N 
ATOM     16  O   LIG    1        3.288  -1.202   0.642  0.00  0.00    -0.271 OA
BRANCH  15  17
ATOM     17  C   LIG    1        4.626   0.912  -0.585  0.00  0.00    +0.094 C 
ATOM     18  C   LIG    1        5.589   1.945  -0.014  0.00  0.00    +0.023 C 
ENDBRANCH  15  17
BRANCH  15  19
ATOM     19  C   LIG    1        2.991   2.361   0.565  0.00  0.00    +0.094 C 
ATOM     20  C   LIG    1        2.119   2.902  -0.548  0.00  0.00    +0.023 C 
ENDBRANCH  15  19
ENDBRANCH  13  14
ENDBRANCH  12  13
ENDBRANCH   4  12
TORSDOF 8
