MODEL 1
REMARK VINA RESULT:      -4.4      0.000      0.000
REMARK  Name = 
REMARK                            x       y       z     vdW  Elec       q    Type
REMARK                         _______ _______ _______ _____ _____    ______ ____
ROOT
ATOM      1  N   LIG    1       10.463  26.182   7.313  0.00  0.00    -0.263 NA
ENDROOT
BRANCH   1   3
ATOM      2  C   LIG    1        9.177  25.478   9.128  0.00  0.00    +0.030 C 
ATOM      3  C   LIG    1        8.960  26.472   7.796  0.00  0.00    +0.162 C 
BRANCH   3   4
ATOM      4  C   LIG    1        9.431  27.822   8.610  0.00  0.00    +0.379 C 
ATOM      5  O   LIG    1        8.557  28.133   9.663  0.00  0.00    -0.244 OA
ATOM      6  O   LIG    1        9.427  28.736   7.722  0.00  0.00    -0.244 OA
ENDBRANCH   3   4
ENDBRANCH   1   3
BRANCH   1   7
ATOM      7  C   LIG    1       10.994  25.732   8.566  0.00  0.00    +0.090 C 
BRANCH   7   8
ATOM      8  C   LIG    1       12.473  25.938   8.725  0.00  0.00    +0.112 C 
ATOM      9 CL   LIG    1       13.374  24.493   8.176  0.00  0.00    -0.112 Cl
ENDBRANCH   7   8
ENDBRANCH   1   7
BRANCH   1  10
ATOM     10  C   LIG    1       10.352  25.173   6.308  0.00  0.00    +0.090 C 
BRANCH  10  11
ATOM     11  C   LIG    1       11.377  25.254   5.219  0.00  0.00    +0.112 C 
ATOM     12 CL   LIG    1       11.750  23.636   4.554  0.00  0.00    -0.112 Cl
ENDBRANCH  10  11
ENDBRANCH   1  10
TORSDOF 6
ENDMDL
MODEL 2
REMARK VINA RESULT:      -4.4      4.113      4.868
REMARK  Name = 
REMARK                            x       y       z     vdW  Elec       q    Type
REMARK                         _______ _______ _______ _____ _____    ______ ____
ROOT
ATOM      1  N   LIG    1       12.918  24.098   6.657  0.00  0.00    -0.263 NA
ENDROOT
BRANCH   1   3
ATOM      2  C   LIG    1       10.729  24.103   5.851  0.00  0.00    +0.030 C 
ATOM      3  C   LIG    1       11.572  23.333   7.078  0.00  0.00    +0.162 C 
BRANCH   3   4
ATOM      4  C   LIG    1       11.952  22.041   6.132  0.00  0.00    +0.379 C 
ATOM      5  O   LIG    1       11.121  21.951   5.006  0.00  0.00    -0.244 OA
ATOM      6  O   LIG    1       11.797  21.037   6.902  0.00  0.00    -0.244 OA
ENDBRANCH   3   4
ENDBRANCH   1   3
BRANCH   1   7
ATOM      7  C   LIG    1       12.529  25.421   7.051  0.00  0.00    +0.090 C 
BRANCH   7   8
ATOM      8  C   LIG    1       12.776  25.737   8.498  0.00  0.00    +0.112 C 
ATOM      9 CL   LIG    1       11.237  26.104   9.335  0.00  0.00    -0.112 Cl
ENDBRANCH   7   8
ENDBRANCH   1   7
BRANCH   1  10
ATOM     10  C   LIG    1       13.953  23.514   7.450  0.00  0.00    +0.090 C 
BRANCH  10  11
ATOM     11  C   LIG    1       15.251  23.305   6.734  0.00  0.00    +0.112 C 
ATOM     12 CL   LIG    1       15.146  23.826   5.026  0.00  0.00    -0.112 Cl
ENDBRANCH  10  11
ENDBRANCH   1  10
TORSDOF 6
ENDMDL
MODEL 3
REMARK VINA RESULT:      -4.3      4.694      5.654
REMARK  Name = 
REMARK                            x       y       z     vdW  Elec       q    Type
REMARK                         _______ _______ _______ _____ _____    ______ ____
ROOT
ATOM      1  N   LIG    1       13.133  23.409   5.281  0.00  0.00    -0.263 NA
ENDROOT
BRANCH   1   3
ATOM      2  C   LIG    1       11.324  23.424   6.754  0.00  0.00    +0.030 C 
ATOM      3  C   LIG    1       12.995  23.453   6.879  0.00  0.00    +0.162 C 
BRANCH   3   4
ATOM      4  C   LIG    1       13.109  21.815   6.983  0.00  0.00    +0.379 C 
ATOM      5  O   LIG    1       11.849  21.204   7.071  0.00  0.00    -0.244 OA
ATOM      6  O   LIG    1       13.792  21.619   8.041  0.00  0.00    -0.244 OA
ENDBRANCH   3   4
ENDBRANCH   1   3
BRANCH   1   7
ATOM      7  C   LIG    1       12.159  24.414   4.967  0.00  0.00    +0.090 C 
BRANCH   7   8
ATOM      8  C   LIG    1       11.842  24.537   3.504  0.00  0.00    +0.112 C 
ATOM      9 CL   LIG    1       11.043  23.052   2.905  0.00  0.00    -0.112 Cl
ENDBRANCH   7   8
ENDBRANCH   1   7
BRANCH   1  10
ATOM     10  C   LIG    1       14.486  23.775   5.004  0.00  0.00    +0.090 C 
BRANCH  10  11
ATOM     11  C   LIG    1       15.303  22.710   4.340  0.00  0.00    +0.112 C 
ATOM     12 CL   LIG    1       14.278  21.620   3.358  0.00  0.00    -0.112 Cl
ENDBRANCH  10  11
ENDBRANCH   1  10
TORSDOF 6
ENDMDL
MODEL 4
REMARK VINA RESULT:      -4.2      4.171      5.581
REMARK  Name = 
REMARK                            x       y       z     vdW  Elec       q    Type
REMARK                         _______ _______ _______ _____ _____    ______ ____
ROOT
ATOM      1  N   LIG    1       12.144  24.165   5.966  0.00  0.00    -0.263 NA
ENDROOT
BRANCH   1   3
ATOM      2  C   LIG    1       12.412  22.580   4.275  0.00  0.00    +0.030 C 
ATOM      3  C   LIG    1       11.428  22.771   5.618  0.00  0.00    +0.162 C 
BRANCH   3   4
ATOM      4  C   LIG    1       12.452  21.943   6.602  0.00  0.00    +0.379 C 
ATOM      5  O   LIG    1       13.576  21.465   5.911  0.00  0.00    -0.244 OA
ATOM      6  O   LIG    1       11.743  20.982   7.049  0.00  0.00    -0.244 OA
ENDBRANCH   3   4
ENDBRANCH   1   3
BRANCH   1   7
ATOM      7  C   LIG    1       11.446  24.991   5.024  0.00  0.00    +0.090 C 
BRANCH   7   8
ATOM      8  C   LIG    1        9.981  25.160   5.310  0.00  0.00    +0.112 C 
ATOM      9 CL   LIG    1        9.623  26.847   5.787  0.00  0.00    -0.112 Cl
ENDBRANCH   7   8
ENDBRANCH   1   7
BRANCH   1  10
ATOM     10  C   LIG    1       11.834  24.421   7.336  0.00  0.00    +0.090 C 
BRANCH  10  11
ATOM     11  C   LIG    1       12.752  25.388   8.018  0.00  0.00    +0.112 C 
ATOM     12 CL   LIG    1       11.954  26.169   9.416  0.00  0.00    -0.112 Cl
ENDBRANCH  10  11
ENDBRANCH   1  10
TORSDOF 6
ENDMDL
MODEL 5
REMARK VINA RESULT:      -4.2      4.354      6.209
REMARK  Name = 
REMARK                            x       y       z     vdW  Elec       q    Type
REMARK                         _______ _______ _______ _____ _____    ______ ____
ROOT
ATOM      1  N   LIG    1       12.746  24.268   4.697  0.00  0.00    -0.263 NA
ENDROOT
BRANCH   1   3
ATOM      2  C   LIG    1       13.447  22.124   4.103  0.00  0.00    +0.030 C 
ATOM      3  C   LIG    1       13.390  23.040   5.504  0.00  0.00    +0.162 C 
BRANCH   3   4
ATOM      4  C   LIG    1       14.910  23.632   5.290  0.00  0.00    +0.379 C 
ATOM      5  O   LIG    1       15.576  23.002   4.228  0.00  0.00    -0.244 OA
ATOM      6  O   LIG    1       15.492  23.402   6.400  0.00  0.00    -0.244 OA
ENDBRANCH   3   4
ENDBRANCH   1   3
BRANCH   1   7
ATOM      7  C   LIG    1       11.407  23.764   4.598  0.00  0.00    +0.090 C 
BRANCH   7   8
ATOM      8  C   LIG    1       10.571  24.424   3.540  0.00  0.00    +0.112 C 
ATOM      9 CL   LIG    1       11.200  24.042   1.909  0.00  0.00    -0.112 Cl
ENDBRANCH   7   8
ENDBRANCH   1   7
BRANCH   1  10
ATOM     10  C   LIG    1       12.899  25.406   5.547  0.00  0.00    +0.090 C 
BRANCH  10  11
ATOM     11  C   LIG    1       11.999  25.424   6.743  0.00  0.00    +0.112 C 
ATOM     12 CL   LIG    1       12.937  25.371   8.265  0.00  0.00    -0.112 Cl
ENDBRANCH  10  11
ENDBRANCH   1  10
TORSDOF 6
ENDMDL
MODEL 6
REMARK VINA RESULT:      -4.1      4.273      5.112
REMARK  Name = 
REMARK                            x       y       z     vdW  Elec       q    Type
REMARK                         _______ _______ _______ _____ _____    ______ ____
ROOT
ATOM      1  N   LIG    1       12.069  23.758   6.186  0.00  0.00    -0.263 NA
ENDROOT
BRANCH   1   3
ATOM      2  C   LIG    1       13.752  22.951   7.587  0.00  0.00    +0.030 C 
ATOM      3  C   LIG    1       13.478  23.031   5.935  0.00  0.00    +0.162 C 
BRANCH   3   4
ATOM      4  C   LIG    1       12.762  21.551   5.888  0.00  0.00    +0.379 C 
ATOM      5  O   LIG    1       11.962  21.316   7.016  0.00  0.00    -0.244 OA
ATOM      6  O   LIG    1       13.740  20.735   5.838  0.00  0.00    -0.244 OA
ENDBRANCH   3   4
ENDBRANCH   1   3
BRANCH   1   7
ATOM      7  C   LIG    1       12.561  24.922   6.863  0.00  0.00    +0.090 C 
BRANCH   7   8
ATOM      8  C   LIG    1       11.507  25.715   7.582  0.00  0.00    +0.112 C 
ATOM      9 CL   LIG    1       11.987  26.007   9.281  0.00  0.00    -0.112 Cl
ENDBRANCH   7   8
ENDBRANCH   1   7
BRANCH   1  10
ATOM     10  C   LIG    1       11.529  24.001   4.887  0.00  0.00    +0.090 C 
BRANCH  10  11
ATOM     11  C   LIG    1       10.093  23.609   4.719  0.00  0.00    +0.112 C 
ATOM     12 CL   LIG    1        9.927  22.185   3.648  0.00  0.00    -0.112 Cl
ENDBRANCH  10  11
ENDBRANCH   1  10
TORSDOF 6
ENDMDL
MODEL 7
REMARK VINA RESULT:      -4.0      1.875      3.535
REMARK  Name = 
REMARK                            x       y       z     vdW  Elec       q    Type
REMARK                         _______ _______ _______ _____ _____    ______ ____
ROOT
ATOM      1  N   LIG    1        9.806  25.671   6.147  0.00  0.00    -0.263 NA
ENDROOT
BRANCH   1   3
ATOM      2  C   LIG    1        7.796  26.770   5.702  0.00  0.00    +0.030 C 
ATOM      3  C   LIG    1        9.410  27.197   5.849  0.00  0.00    +0.162 C 
BRANCH   3   4
ATOM      4  C   LIG    1        9.272  27.526   7.456  0.00  0.00    +0.379 C 
ATOM      5  O   LIG    1        8.259  26.769   8.063  0.00  0.00    -0.244 OA
ATOM      6  O   LIG    1        9.004  28.771   7.495  0.00  0.00    -0.244 OA
ENDBRANCH   3   4
ENDBRANCH   1   3
BRANCH   1   7
ATOM      7  C   LIG    1        9.335  25.098   4.919  0.00  0.00    +0.090 C 
BRANCH   7   8
ATOM      8  C   LIG    1       10.414  24.793   3.921  0.00  0.00    +0.112 C 
ATOM      9 CL   LIG    1        9.854  25.146   2.259  0.00  0.00    -0.112 Cl
ENDBRANCH   7   8
ENDBRANCH   1   7
BRANCH   1  10
ATOM     10  C   LIG    1       11.225  25.669   6.306  0.00  0.00    +0.090 C 
BRANCH  10  11
ATOM     11  C   LIG    1       11.733  24.803   7.417  0.00  0.00    +0.112 C 
ATOM     12 CL   LIG    1       12.357  25.785   8.776  0.00  0.00    -0.112 Cl
ENDBRANCH  10  11
ENDBRANCH   1  10
TORSDOF 6
ENDMDL
MODEL 8
REMARK VINA RESULT:      -4.0      6.111      7.482
REMARK  Name = 
REMARK                            x       y       z     vdW  Elec       q    Type
REMARK                         _______ _______ _______ _____ _____    ______ ____
ROOT
ATOM      1  N   LIG    1       14.816  22.427   6.614  0.00  0.00    -0.263 NA
ENDROOT
BRANCH   1   3
ATOM      2  C   LIG    1       15.024  22.239   4.298  0.00  0.00    +0.030 C 
ATOM      3  C   LIG    1       14.150  21.475   5.507  0.00  0.00    +0.162 C 
BRANCH   3   4
ATOM      4  C   LIG    1       15.300  20.321   5.737  0.00  0.00    +0.379 C 
ATOM      5  O   LIG    1       16.476  20.599   5.024  0.00  0.00    -0.244 OA
ATOM      6  O   LIG    1       14.750  19.249   5.321  0.00  0.00    -0.244 OA
ENDBRANCH   3   4
ENDBRANCH   1   3
BRANCH   1   7
ATOM      7  C   LIG    1       14.122  23.638   6.283  0.00  0.00    +0.090 C 
BRANCH   7   8
ATOM      8  C   LIG    1       12.842  23.847   7.040  0.00  0.00    +0.112 C 
ATOM      9 CL   LIG    1       13.025  25.166   8.235  0.00  0.00    -0.112 Cl
ENDBRANCH   7   8
ENDBRANCH   1   7
BRANCH   1  10
ATOM     10  C   LIG    1       14.461  21.855   7.873  0.00  0.00    +0.090 C 
BRANCH  10  11
ATOM     11  C   LIG    1       15.414  22.149   8.990  0.00  0.00    +0.112 C 
ATOM     12 CL   LIG    1       14.984  21.242  10.471  0.00  0.00    -0.112 Cl
ENDBRANCH  10  11
ENDBRANCH   1  10
TORSDOF 6
ENDMDL
MODEL 9
REMARK VINA RESULT:      -3.9      3.726      5.379
REMARK  Name = 
REMARK                            x       y       z     vdW  Elec       q    Type
REMARK                         _______ _______ _______ _____ _____    ______ ____
ROOT
ATOM      1  N   LIG    1       11.651  25.157   5.926  0.00  0.00    -0.263 NA
ENDROOT
BRANCH   1   3
ATOM      2  C   LIG    1       11.632  24.505   3.685  0.00  0.00    +0.030 C 
ATOM      3  C   LIG    1       11.848  23.756   5.169  0.00  0.00    +0.162 C 
BRANCH   3   4
ATOM      4  C   LIG    1       13.481  23.949   5.133  0.00  0.00    +0.379 C 
ATOM      5  O   LIG    1       13.852  25.209   4.640  0.00  0.00    -0.244 OA
ATOM      6  O   LIG    1       13.886  23.016   4.365  0.00  0.00    -0.244 OA
ENDBRANCH   3   4
ENDBRANCH   1   3
BRANCH   1   7
ATOM      7  C   LIG    1       10.411  25.542   5.317  0.00  0.00    +0.090 C 
BRANCH   7   8
ATOM      8  C   LIG    1        9.676  26.635   6.039  0.00  0.00    +0.112 C 
ATOM      9 CL   LIG    1        8.657  27.568   4.902  0.00  0.00    -0.112 Cl
ENDBRANCH   7   8
ENDBRANCH   1   7
BRANCH   1  10
ATOM     10  C   LIG    1       11.565  24.833   7.314  0.00  0.00    +0.090 C 
BRANCH  10  11
ATOM     11  C   LIG    1       12.565  25.527   8.186  0.00  0.00    +0.112 C 
ATOM     12 CL   LIG    1       11.815  26.108   9.702  0.00  0.00    -0.112 Cl
ENDBRANCH  10  11
ENDBRANCH   1  10
TORSDOF 6
ENDMDL
